* C:\Users\giaco\Desktop\es1FdE\spice\esercizio3.asc
Vin Vi 0 DC 0 AC 1 sin(0 100mV 10MEG 0 0 0)
Ci N1 Vi 100n
Cf Vo N1 1u
Ri N1 Vi 1k
Rf Vo N1 100k
Eopamp Vo 0 0 N1 1000000
.tran 0 50u
.backanno
.end
