* C:\Users\giaco\Desktop\es2FdE\spice\Draft1.asc
I Vo 0 {0.168*V(G)}
Rd Vo 0 100
R3 Vo 0 1000
RG1 Vo G 1187180
RI G in 10000
Vi in 0 SINE(0 10m 1K)
.backanno

.end
